
 OpenBabel12101821373D

  4  3  0  0  0  0  0  0  0  0999 V2000
    1.2129    0.0341   -0.0642 I   0  0  0  0  0  0  0  0  0  0  0  0
    3.1699    0.0341   -0.0642 N   0  0  0  0  0  0  0  0  0  0  0  0
    3.7139    1.1218    0.1423 O   0  0  0  0  0  0  0  0  0  0  0  0
    3.7139   -1.0535   -0.2708 O   0  0  0  0  0  0  0  0  0  0  0  0
  1  2  1  0  0  0  0
  2  3  2  0  0  0  0
  2  4  2  0  0  0  0
M  END
