
 OpenBabel12101821373D

  4  3  0  0  0  0  0  0  0  0999 V2000
    1.0572   -0.0948   -0.0160 I   0  0  0  0  0  0  0  0  0  0  0  0
    3.0403   -0.0949   -0.0362 N   0  0  0  0  0  0  0  0  0  0  0  0
    3.4005   -0.9060    0.4646 H   0  0  0  0  0  0  0  0  0  0  0  0
    3.4005    0.7216    0.4557 H   0  0  0  0  0  0  0  0  0  0  0  0
  1  2  1  0  0  0  0
  2  3  1  0  0  0  0
  2  4  1  0  0  0  0
M  END
