p35_173
  MatStudio         3D                             0

 36 40  0  0  0  0  0  0  0  0999 V2000
   -0.7668    0.8849   -0.6153 C   0  0  0  0  0  0  0  0  0  1
   -1.0989    0.5448    0.8016 C   0  0  0  0  0  0  0  0  0  2
   -0.3598    1.1895    1.9345 N   0  0  0  0  0  0  0  0  0  3
    0.8100    2.0926    1.5776 C   0  0  0  0  0  0  0  0  0  4
    0.7519    2.8109    0.1904 C   0  0  0  0  0  0  0  0  0  5
    0.2039    1.9749   -0.9549 N   0  0  0  0  0  0  0  0  0  6
    0.9566    3.1118    2.6861 N   0  0  0  0  0  0  0  0  0  7
    1.7029    4.2781    2.0999 C   0  0  0  0  0  0  0  0  0  8
    0.6990    5.0206    1.1626 C   0  0  0  0  0  0  0  0  0  9
   -0.1194    4.0208    0.3779 N   0  0  0  0  0  0  0  0  0 10
    2.3176    5.1184    3.2086 N   0  0  0  0  0  0  0  0  0 11
    1.5098    6.2824    3.7210 C   0  0  0  0  0  0  0  0  0 12
    0.2024    6.6540    3.0894 C   0  0  0  0  0  0  0  0  0 13
   -0.2643    5.9836    1.8332 N   0  0  0  0  0  0  0  0  0 14
   -1.6079    0.0163   -1.4951 N   0  0  0  0  0  0  0  0  0 15
   -2.4681   -0.8420   -0.6245 O   0  0  0  0  0  0  0  0  0 16
   -2.1668   -0.5227    0.8150 N   0  0  0  0  0  0  0  0  0 17
    1.7030    7.1950    4.8973 N   0  0  0  0  0  0  0  0  0 18
    0.5227    8.1056    4.9890 O   0  0  0  0  0  0  0  0  0 19
   -0.4269    7.7798    3.8725 N   0  0  0  0  0  0  0  0  0 20
   -1.6134    0.0294   -2.9753 O   0  0  0  0  0  0  0  0  0 21
    2.8366    7.1805    5.8466 O   0  0  0  0  0  0  0  0  0 22
    1.7406    1.4351    1.5411 H   0  0  0  0  0  0  0  0  0 23
    1.7870    3.1979   -0.0910 H   0  0  0  0  0  0  0  0  0 24
    2.5462    3.8311    1.4761 H   0  0  0  0  0  0  0  0  0 25
    1.3412    5.6337    0.4479 H   0  0  0  0  0  0  0  0  0 26
    0.5910    2.2468   -2.3562 N   0  0  0  0  0  0  0  0  0 27
    3.6721    4.7942    3.7154 N   0  0  0  0  0  0  0  0  0 28
    4.3391    5.6595    4.7105 O   0  0  0  0  0  0  0  0  0 29
    4.3733    3.5960    3.2022 O   0  0  0  0  0  0  0  0  0 30
   -0.6701    1.0356    2.9888 H   0  0  0  0  0  0  0  0  0 31
    1.5087    2.6309    3.5204 H   0  0  0  0  0  0  0  0  0 32
   -0.4076    4.4924   -0.5848 H   0  0  0  0  0  0  0  0  0 33
   -1.2776    6.1700    1.4198 H   0  0  0  0  0  0  0  0  0 34
    0.6412    3.3442   -2.5152 H   0  0  0  0  0  0  0  0  0 35
   -0.1712    1.8090   -3.0344 H   0  0  0  0  0  0  0  0  0 36
  1  2  1  0  0  0
  2  3  1  0  0  0
  3  4  1  0  0  0
  4  5  1  0  0  0
  5  6  1  0  0  0
  6  1  1  0  0  0
  4  7  1  0  0  0
  7  8  1  0  0  0
  8  9  1  0  0  0
  9 10  1  0  0  0
 10  5  1  0  0  0
  8 11  1  0  0  0
 11 12  1  0  0  0
 12 13  1  0  0  0
 13 14  1  0  0  0
 14  9  1  0  0  0
  1 15  2  0  0  0
 15 16  1  0  0  0
 16 17  1  0  0  0
 17  2  2  0  0  0
 12 18  2  0  0  0
 18 19  1  0  0  0
 19 20  1  0  0  0
 20 13  2  0  0  0
 15 21  2  0  0  0
 18 22  2  0  0  0
  4 23  1  0  0  0
  5 24  1  0  0  0
  8 25  1  0  0  0
  9 26  1  0  0  0
  6 27  1  0  0  0
 28 29  2  0  0  0
 28 30  2  0  0  0
 11 28  1  0  0  0
  3 31  1  0  0  0
  7 32  1  0  0  0
 10 33  1  0  0  0
 14 34  1  0  0  0
 27 35  1  0  0  0
 27 36  1  0  0  0
M  END
