p35n
 OpenBabel12101821373D

 29 33  0  0  0  0  0  0  0  0999 V2000
    1.4632    0.7113    0.2532 C   0  0  0  0  0  0  0  0  0  0  0  0
    1.3620    2.0913    0.4481 C   0  0  0  0  0  0  0  0  0  0  0  0
    0.4625    2.9112   -0.1749 N   0  5  0  0  0  0  0  0  0  0  0  0
   -0.4415    2.1886   -1.1933 C   0  0  1  0  0  0  0  0  0  0  0  0
   -0.0521    0.6884   -1.5989 C   0  0  1  0  0  0  0  0  0  0  0  0
    0.7124   -0.0600   -0.5780 N   0  5  0  0  0  0  0  0  0  0  0  0
   -1.8462    2.3958   -0.7963 N   0  5  0  0  0  0  0  0  0  0  0  0
   -2.8721    1.5098   -1.4511 C   0  0  1  0  0  0  0  0  0  0  0  0
   -2.4139    0.0517   -2.0134 C   0  0  1  0  0  0  0  0  0  0  0  0
   -0.9942   -0.0608   -2.4554 N   0  5  0  0  0  0  0  0  0  0  0  0
   -4.0411    1.4413   -0.4893 N   0  5  0  0  0  0  0  0  0  0  0  0
   -3.7768    0.3961    0.3863 C   0  0  0  0  0  0  0  0  0  0  0  0
   -3.2568   -0.8591    0.0278 C   0  0  0  0  0  0  0  0  0  0  0  0
   -2.8129   -1.1857   -1.2317 N   0  5  0  0  0  0  0  0  0  0  0  0
    2.5300    0.2884    0.9337 N   0  3  0  0  0  0  0  0  0  0  0  0
    3.0841    1.4416    1.6150 O   0  0  0  0  0  0  0  0  0  0  0  0
    2.2986    2.5534    1.2915 N   0  0  0  0  0  0  0  0  0  0  0  0
   -3.6502    0.4653    1.7191 N   0  3  0  0  0  0  0  0  0  0  0  0
   -3.4319   -0.9060    2.1854 O   0  0  0  0  0  0  0  0  0  0  0  0
   -3.1898   -1.7128    1.0606 N   0  0  0  0  0  0  0  0  0  0  0  0
    3.2976   -0.7270    0.9416 O   0  5  0  0  0  0  0  0  0  0  0  0
   -4.0349    1.2448    2.6597 O   0  5  0  0  0  0  0  0  0  0  0  0
   -0.2872    2.7596   -2.1242 H   0  0  0  0  0  0  0  0  0  0  0  0
    0.7712    0.8945   -2.3222 H   0  0  0  0  0  0  0  0  0  0  0  0
   -3.2335    2.0381   -2.3513 H   0  0  0  0  0  0  0  0  0  0  0  0
   -3.0053   -0.0365   -2.9423 H   0  0  0  0  0  0  0  0  0  0  0  0
    0.2075   -1.2332   -0.0455 N   0  0  0  0  0  0  0  0  0  0  0  0
    0.1546   -1.3244    1.1996 O   0  0  0  0  0  0  0  0  0  0  0  0
    0.3719   -2.2516   -0.7741 O   0  0  0  0  0  0  0  0  0  0  0  0
  1  2  1  0  0  0  0
  1 15  2  0  0  0  0
  2  3  1  0  0  0  0
  3  4  1  0  0  0  0
  4  5  1  0  0  0  0
  4  7  1  0  0  0  0
  4 23  1  6  0  0  0
  5  6  1  0  0  0  0
  5 24  1  6  0  0  0
  6  1  1  0  0  0  0
  6 27  1  0  0  0  0
  7  8  1  0  0  0  0
  8  9  1  0  0  0  0
  8 11  1  0  0  0  0
  8 25  1  6  0  0  0
  9 10  1  0  0  0  0
  9 26  1  6  0  0  0
 10  5  1  0  0  0  0
 11 12  1  0  0  0  0
 12 13  1  0  0  0  0
 12 18  2  0  0  0  0
 13 14  1  0  0  0  0
 14  9  1  0  0  0  0
 15 16  1  0  0  0  0
 15 21  2  0  0  0  0
 16 17  1  0  0  0  0
 17  2  2  0  0  0  0
 18 19  1  0  0  0  0
 18 22  2  0  0  0  0
 19 20  1  0  0  0  0
 20 13  2  0  0  0  0
 27 28  2  0  0  0  0
 27 29  2  0  0  0  0
M  CHG  8   3  -1   6  -1   7  -1  10  -1  11  -1  14  -1  15   1  18   1
M  CHG  2  21  -1  22  -1
M  END
