p35n
 OpenBabel12101821373D

 29 33  0  0  0  0  0  0  0  0999 V2000
    1.8847   -1.1759    0.5926 C   0  0  0  0  0  0  0  0  0  0  0  0
    2.3717   -2.3495   -0.0458 C   0  0  0  0  0  0  0  0  0  0  0  0
    2.1113   -3.6359    0.3515 N   0  5  0  0  0  0  0  0  0  0  0  0
    1.4722   -3.6636    1.7197 C   0  0  1  0  0  0  0  0  0  0  0  0
    0.4320   -2.4946    1.9784 C   0  0  1  0  0  0  0  0  0  0  0  0
    1.0218   -1.1128    1.6882 N   0  5  0  0  0  0  0  0  0  0  0  0
    0.9532   -5.0295    2.0198 N   0  5  0  0  0  0  0  0  0  0  0  0
   -0.4699   -5.0993    2.5005 C   0  0  1  0  0  0  0  0  0  0  0  0
   -1.5171   -4.0329    1.8210 C   0  0  1  0  0  0  0  0  0  0  0  0
   -0.9129   -2.7366    1.4046 N   0  5  0  0  0  0  0  0  0  0  0  0
   -0.9190   -6.5376    2.3723 N   0  5  0  0  0  0  0  0  0  0  0  0
   -1.2665   -6.6856    1.0331 C   0  0  0  0  0  0  0  0  0  0  0  0
   -2.0805   -5.7757    0.3151 C   0  0  0  0  0  0  0  0  0  0  0  0
   -2.5587   -4.6036    0.8479 N   0  5  0  0  0  0  0  0  0  0  0  0
    2.4467   -0.1598   -0.0463 N   0  3  0  0  0  0  0  0  0  0  0  0
    3.2340   -0.6866   -1.1518 O   0  0  0  0  0  0  0  0  0  0  0  0
    3.1523   -2.0760   -1.0966 N   0  0  0  0  0  0  0  0  0  0  0  0
   -0.5624   -7.3442    0.0952 N   0  3  0  0  0  0  0  0  0  0  0  0
   -1.2736   -7.1286   -1.1698 O   0  0  0  0  0  0  0  0  0  0  0  0
   -2.2391   -6.1243   -0.9685 N   0  0  0  0  0  0  0  0  0  0  0  0
    2.5088    1.1046    0.0581 O   0  5  0  0  0  0  0  0  0  0  0  0
    0.1467   -8.4108    0.0793 O   0  5  0  0  0  0  0  0  0  0  0  0
    2.2858   -3.4898    2.4429 H   0  0  0  0  0  0  0  0  0  0  0  0
    0.2616   -2.4959    3.0676 H   0  0  0  0  0  0  0  0  0  0  0  0
   -0.4590   -4.8489    3.5744 H   0  0  0  0  0  0  0  0  0  0  0  0
   -2.1392   -3.7453    2.6880 H   0  0  0  0  0  0  0  0  0  0  0  0
   -1.3553   -1.9949    0.3603 N   0  0  0  0  0  0  0  0  0  0  0  0
   -1.6448   -0.8014    0.6236 O   0  0  0  0  0  0  0  0  0  0  0  0
   -1.6193   -2.5004   -0.7446 O   0  0  0  0  0  0  0  0  0  0  0  0
  1  2  1  0  0  0  0
  1 15  2  0  0  0  0
  2  3  1  0  0  0  0
  3  4  1  0  0  0  0
  4  5  1  0  0  0  0
  4  7  1  0  0  0  0
  4 23  1  1  0  0  0
  5  6  1  0  0  0  0
  5 24  1  1  0  0  0
  6  1  1  0  0  0  0
  7  8  1  0  0  0  0
  8  9  1  0  0  0  0
  8 11  1  0  0  0  0
  8 25  1  1  0  0  0
  9 10  1  0  0  0  0
  9 26  1  1  0  0  0
 10  5  1  0  0  0  0
 10 27  1  0  0  0  0
 11 12  1  0  0  0  0
 12 13  1  0  0  0  0
 12 18  2  0  0  0  0
 13 14  1  0  0  0  0
 14  9  1  0  0  0  0
 15 16  1  0  0  0  0
 15 21  2  0  0  0  0
 16 17  1  0  0  0  0
 17  2  2  0  0  0  0
 18 19  1  0  0  0  0
 18 22  2  0  0  0  0
 19 20  1  0  0  0  0
 20 13  2  0  0  0  0
 27 28  2  0  0  0  0
 27 29  2  0  0  0  0
M  CHG  8   3  -1   6  -1   7  -1  10  -1  11  -1  14  -1  15   1  18   1
M  CHG  2  21  -1  22  -1
M  END
