p35n
 OpenBabel12101821373D

 29 33  0  0  0  0  0  0  0  0999 V2000
    0.6214    0.5297    0.0032 C   0  0  0  0  0  0  0  0  0  0  0  0
    1.6861   -0.0023   -1.4041 C   0  0  0  0  0  0  0  0  0  0  0  0
    2.7131   -1.4368   -1.3047 N   0  5  0  0  0  0  0  0  0  0  0  0
    3.0231   -2.1849    0.6663 C   0  0  1  0  0  0  0  0  0  0  0  0
    1.4199   -1.8973    1.8453 C   0  0  1  0  0  0  0  0  0  0  0  0
    0.3665   -0.3117    1.5184 N   0  5  0  0  0  0  0  0  0  0  0  0
    3.9731   -3.3414    0.6969 N   0  5  0  0  0  0  0  0  0  0  0  0
    3.6268   -3.2858   -0.6595 C   0  0  1  0  0  0  0  0  0  0  0  0
    1.6259   -3.1128   -0.4344 C   0  0  1  0  0  0  0  0  0  0  0  0
    0.7654   -3.3313    1.0627 N   0  5  0  0  0  0  0  0  0  0  0  0
    4.8485   -1.9007   -0.9311 N   0  5  0  0  0  0  0  0  0  0  0  0
    4.4049   -0.6310   -0.0685 C   0  0  0  0  0  0  0  0  0  0  0  0
    2.7704   -0.3217    0.5069 C   0  0  0  0  0  0  0  0  0  0  0  0
    1.3258   -1.4521   -0.0176 N   0  5  0  0  0  0  0  0  0  0  0  0
    0.8469    1.8475   -0.1434 N   0  3  0  0  0  0  0  0  0  0  0  0
    1.3389    2.1515   -1.5363 O   0  0  0  0  0  0  0  0  0  0  0  0
    1.9169    1.0403   -2.2161 N   0  0  0  0  0  0  0  0  0  0  0  0
    4.9916    0.5124    0.2519 N   0  3  0  0  0  0  0  0  0  0  0  0
    4.1959    1.2055    1.2724 O   0  0  0  0  0  0  0  0  0  0  0  0
    2.8973    0.6942    1.3966 N   0  0  0  0  0  0  0  0  0  0  0  0
    0.5368    2.9095    0.4979 O   0  5  0  0  0  0  0  0  0  0  0  0
    6.1468    1.0251    0.0729 O   0  5  0  0  0  0  0  0  0  0  0  0
    2.6674   -3.1341    1.1477 H   0  0  0  0  0  0  0  0  0  0  0  0
    1.6661   -2.0220    2.9011 H   0  0  0  0  0  0  0  0  0  0  0  0
    3.8732   -4.1705   -1.2544 H   0  0  0  0  0  0  0  0  0  0  0  0
    1.0634   -3.4541   -1.3119 H   0  0  0  0  0  0  0  0  0  0  0  0
    5.2104   -3.1435    1.2201 N   0  0  0  0  0  0  0  0  0  0  0  0
    6.1362   -3.8586    0.7651 O   0  0  0  0  0  0  0  0  0  0  0  0
    5.3175   -2.5208    2.2979 O   0  0  0  0  0  0  0  0  0  0  0  0
  1  2  1  0  0  0  0
  1 15  2  0  0  0  0
  2  3  1  0  0  0  0
  3  4  1  0  0  0  0
  4  5  1  0  0  0  0
  4  7  1  0  0  0  0
  4 23  1  1  0  0  0
  5  6  1  0  0  0  0
  5 24  1  1  0  0  0
  6  1  1  0  0  0  0
  7  8  1  0  0  0  0
  7 27  1  0  0  0  0
  8  9  1  0  0  0  0
  8 11  1  0  0  0  0
  8 25  1  6  0  0  0
  9 10  1  0  0  0  0
  9 26  1  6  0  0  0
 10  5  1  0  0  0  0
 11 12  1  0  0  0  0
 12 13  1  0  0  0  0
 12 18  2  0  0  0  0
 13 14  1  0  0  0  0
 14  9  1  0  0  0  0
 15 16  1  0  0  0  0
 15 21  2  0  0  0  0
 16 17  1  0  0  0  0
 17  2  2  0  0  0  0
 18 19  1  0  0  0  0
 18 22  2  0  0  0  0
 19 20  1  0  0  0  0
 20 13  2  0  0  0  0
 27 28  2  0  0  0  0
 27 29  2  0  0  0  0
M  CHG  8   3  -1   6  -1   7  -1  10  -1  11  -1  14  -1  15   1  18   1
M  CHG  2  21  -1  22  -1
M  END
