p50
  MatStudio         3D                             0

 12 14  0  0  0  0  0  0  0  0999 V2000
   16.9084  -14.7757    0.0027 C   0  0  0  0  0  0  0  0  0  0
   15.6585  -15.6386    0.0016 N   0  0  0  0  0  0  0  0  0  0
   15.6587  -17.1355    0.0053 C   0  0  0  0  0  0  0  0  0  0
   16.9171  -17.9535    0.0101 N   0  5  0  0  0  0  0  0  0  0
   18.1710  -17.1285    0.0101 C   0  0  0  0  0  0  0  0  0  0
   18.1630  -15.6317    0.0067 N   0  0  0  0  0  0  0  0  0  0
   14.2615  -15.1470   -0.0048 N   0  0  0  0  0  0  0  0  0  0
   13.3435  -16.3635   -0.0050 C   0  0  0  0  0  0  0  0  0  0
   14.2149  -17.6424    0.0015 C   0  0  0  0  0  0  0  0  0  0
   19.6177  -17.6272    0.0137 C   0  0  0  0  0  0  0  0  0  0
   20.4821  -16.3433    0.0123 C   0  0  0  0  0  0  0  0  0  0
   19.5572  -15.1322    0.0079 N   0  0  0  0  0  0  0  0  0  0
  1  2  1  0  0  0
  2  3  1  0  0  0
  3  4  1  0  0  0
  4  5  1  0  0  0
  5  6  1  0  0  0
  6  1  1  0  0  0
  2  7  1  0  0  0
  7  8  2  0  0  0
  8  9  1  0  0  0
  9  3  2  0  0  0
  5 10  2  0  0  0
 10 11  1  0  0  0
 11 12  2  0  0  0
 12  6  1  0  0  0
M  END
